
 Fire Dynamics Simulator

 Current Date     : November 19, 2025  05:34:14
 Revision         : FDS-6.10.1-0-g12efa16-release
 Revision Date    : Wed Apr 2 17:38:58 2025 -0400
 Compiler         : Intel(R) Fortran Compiler for applications running on Intel(R) 64, Version 2025.1.0 Build 20250317
 Compilation Date : Fri-04/04/2025-08:57-AM

 Number of MPI Processes:  1
 Number of OpenMP Threads: 4

 MPI version: 3.1
 MPI library version: Intel(R) MPI Library 2021.6 for Windows* OS

 Hypre library version: v2.32.0
 Sundials library version: v6.7.0

 Job TITLE        : Dynamic Fire Simulation
 Job ID string    : huh


 Grid Dimensions, Mesh     1

   Cells in the X Direction            22
   Cells in the Y Direction            32
   Cells in the Z Direction             3
   Number of Grid Cells              2112


 Physical Dimensions, Mesh     1

   Length (m)                      22.000
   Width  (m)                      32.000
   Height (m)                       3.000

 Miscellaneous Parameters

   Total Number of Grid Cells        2112
   Maximum Cell Aspect Ratio        1.000
   Initial Time Step (s)            0.922
   CFL Velocity Norm                    2
   Simulation Start Time (s)          0.0
   Simulation End Time (s)          600.0
   Background Pressure (Pa)     101325.00
   Ambient Temperature (C)          20.00

   3D Cartesian
   VLES Calculation
   Eddy Viscosity Model:  Deardorff (C_DEARDORFF = 0.10)
   Surface INERT Eddy Viscosity Model:  WALE (C_WALE = 0.60)
   Surface FLOOR Eddy Viscosity Model:  WALE (C_WALE = 0.60)
   Surface 5 Eddy Viscosity Model:  WALE (C_WALE = 0.60)
   Surface 11 Eddy Viscosity Model:  WALE (C_WALE = 0.60)
   Surface 14 Eddy Viscosity Model:  WALE (C_WALE = 0.60)
   Turbulent Prandtl Number:         0.50
   Turbulent Schmidt Number:         0.50


 Pressure solver information

   Solver:                            FFT
   Velocity tolerance (m/s):    5.000E-01
   Press eqn res tol (1/s^2):   2.000E+01
   Max pressure iterations:            10


 Background Stratification

      Z (m)     P_0 (Pa)    TMP_0 (C)
   ------------------------------------
        2.50    101295.69     20.00
        1.50    101307.41     20.00
        0.50    101319.13     20.00


 Mass Fraction Transformation Matrix to Convert Species Mixtures (Columns) to Primitive Species (Rows)

                         AIR       PROPANE   PRODUCTS
   NITROGEN              0.762470  0.000000  0.715129
   OXYGEN                0.230997  0.000000  0.000000
   CARBON DIOXIDE        0.000591  0.000000  0.174107
   WATER VAPOR           0.005941  0.000000  0.107038
   CARBON MONOXIDE       0.000000  0.000000  0.000621
   SOOT                  0.000000  0.000000  0.003104
   HYDROGEN              0.000000  0.000000  0.000000
   HYDROGEN CYANIDE      0.000000  0.000000  0.000000
   PROPANE               0.000000  1.000000  0.000000


 Primitive Species Information

   NITROGEN
   Gas Species
   Molecular Weight (g/mol)                28.01340
   Ambient Density (kg/m^3)                1.165
           Enthalpy of Formation (J/kg)  0.000E+00

   OXYGEN
   Gas Species
   Molecular Weight (g/mol)                31.99880
   Ambient Density (kg/m^3)                1.330
           Enthalpy of Formation (J/kg)  0.000E+00

   CARBON DIOXIDE
   Gas Species
   Molecular Weight (g/mol)                44.00950
   Ambient Density (kg/m^3)                1.830
           Enthalpy of Formation (J/kg) -8.941E+06

   WATER VAPOR
   Gas Species
   Molecular Weight (g/mol)                18.01528
   Ambient Density (kg/m^3)                0.749
           Enthalpy of Formation (J/kg) -1.342E+07

   CARBON MONOXIDE
   Gas Species
   Molecular Weight (g/mol)                28.01010
   Ambient Density (kg/m^3)                1.164
           Enthalpy of Formation (J/kg) -3.946E+06

   SOOT
   Gas Species
   Molecular Weight (g/mol)                12.01070
   Ambient Density (kg/m^3)                0.499
           Enthalpy of Formation (J/kg)  0.000E+00

   HYDROGEN
   Gas Species
   Molecular Weight (g/mol)                 2.01588
   Ambient Density (kg/m^3)                0.084
           Enthalpy of Formation (J/kg)  0.000E+00

   HYDROGEN CYANIDE
   Gas Species
   Molecular Weight (g/mol)                27.02534
   Ambient Density (kg/m^3)                1.123
           Enthalpy of Formation (J/kg)  4.924E+06

   PROPANE
   Gas Species
   Molecular Weight (g/mol)                44.09562
   Ambient Density (kg/m^3)                1.833
           Enthalpy of Formation (J/kg) -2.374E+06


 Tracked (Lumped) Species Information

   AIR
   Molecular Weight (g/mol)            28.75198
   Ambient Density (kg/m^3)            1.195
   Initial Mass Fraction               1.000
   Enthalpy of Formation (J/kg)     -8.504E+04

   Sub Species                    Mass Fraction     Mole Fraction
   NITROGEN                       7.624699E-01      7.825727E-01
   OXYGEN                         2.309974E-01      2.075588E-01
   CARBON DIOXIDE                 5.914650E-04      3.864118E-04
   WATER VAPOR                    5.941209E-03      9.482037E-03
 
     Viscosity (kg/m/s) Ambient,  293 K:  1.796E-05
                                  500 K:  2.612E-05
                                 1000 K:  4.125E-05
                                 1500 K:  5.371E-05
                                 2000 K:  6.476E-05
   Therm. Cond. (W/m/K) Ambient,  293 K:  2.556E-02
                                  500 K:  3.814E-02
                                 1000 K:  6.686E-02
                                 1500 K:  9.249E-02
                                 2000 K:  1.153E-01
        Enthalpy (J/kg) Ambient,  293 K: -9.012E+04
                                  500 K:  1.222E+05
                                 1000 K:  6.721E+05
                                 1500 K:  1.270E+06
                                 2000 K:  1.896E+06
    Spec. Heat (J/kg/K) Ambient,  293 K:  1.016E+03
                                  500 K:  1.042E+03
                                 1000 K:  1.156E+03
                                 1500 K:  1.229E+03
                                 2000 K:  1.270E+03
   Diff. Coeff. (m^2/s) Ambient,  293 K:  1.991E-05
                                  500 K:  4.961E-05
                                 1000 K:  1.580E-04
                                 1500 K:  3.095E-04
                                 2000 K:  4.984E-04
     Gibbs Energy Amb. (kJ/mol),  293 K: -5.873E+01
                                  500 K: -1.007E+02
                                 1000 K: -2.117E+02
                                 1500 K: -3.312E+02
                                 2000 K: -4.568E+02

   PROPANE
   Molecular Weight (g/mol)            44.09562
   Ambient Density (kg/m^3)            1.833
   Initial Mass Fraction               0.000
   Enthalpy of Formation (J/kg)     -2.374E+06

   Sub Species                    Mass Fraction     Mole Fraction
   PROPANE                        1.000000E+00      1.000000E+00
 
     Viscosity (kg/m/s) Ambient,  293 K:  8.079E-06
                                  500 K:  1.310E-05
                                 1000 K:  2.234E-05
                                 1500 K:  2.955E-05
                                 2000 K:  3.574E-05
   Therm. Cond. (W/m/K) Ambient,  293 K:  1.821E-02
                                  500 K:  4.581E-02
                                 1000 K:  1.212E-01
                                 1500 K:  1.890E-01
                                 2000 K:  2.465E-01
        Enthalpy (J/kg) Ambient,  293 K: -2.382E+06
                                  500 K: -1.946E+06
                                 1000 K: -2.769E+05
                                 1500 K:  1.900E+06
                                 2000 K:  4.336E+06
    Spec. Heat (J/kg/K) Ambient,  293 K:  1.646E+03
                                  500 K:  2.553E+03
                                 1000 K:  3.960E+03
                                 1500 K:  4.669E+03
                                 2000 K:  5.034E+03
   Diff. Coeff. (m^2/s) Ambient,  293 K:  1.110E-05
                                  500 K:  2.862E-05
                                 1000 K:  9.316E-05
                                 1500 K:  1.833E-04
                                 2000 K:  2.954E-04
     Gibbs Energy Amb. (kJ/mol),  293 K: -1.839E+02
                                  500 K: -2.447E+02
                                 1000 K: -4.295E+02
                                 1500 K: -6.584E+02
                                 2000 K: -9.217E+02

   PRODUCTS
   Molecular Weight (g/mol)            28.00618
   Ambient Density (kg/m^3)            1.164
   Initial Mass Fraction               0.000
   Enthalpy of Formation (J/kg)     -2.996E+06

   Sub Species                    Mass Fraction     Mole Fraction
   NITROGEN                       7.151289E-01      7.149445E-01
   CARBON DIOXIDE                 1.741074E-01      1.107961E-01
   WATER VAPOR                    1.070384E-01      1.663997E-01
   CARBON MONOXIDE                6.208910E-04      6.208040E-04
   SOOT                           3.104455E-03      7.238872E-03
   HYDROGEN CYANIDE               0.000000E+00      0.000000E+00
 
     Viscosity (kg/m/s) Ambient,  293 K:  1.609E-05
                                  500 K:  2.385E-05
                                 1000 K:  3.888E-05
                                 1500 K:  5.138E-05
                                 2000 K:  6.239E-05
   Therm. Cond. (W/m/K) Ambient,  293 K:  2.338E-02
                                  500 K:  3.616E-02
                                 1000 K:  6.717E-02
                                 1500 K:  9.644E-02
                                 2000 K:  1.227E-01
        Enthalpy (J/kg) Ambient,  293 K: -3.002E+06
                                  500 K: -2.770E+06
                                 1000 K: -2.158E+06
                                 1500 K: -1.478E+06
                                 2000 K: -7.568E+05
    Spec. Heat (J/kg/K) Ambient,  293 K:  1.092E+03
                                  500 K:  1.145E+03
                                 1000 K:  1.301E+03
                                 1500 K:  1.408E+03
                                 2000 K:  1.472E+03
   Diff. Coeff. (m^2/s) Ambient,  293 K:  1.957E-05
                                  500 K:  4.968E-05
                                 1000 K:  1.605E-04
                                 1500 K:  3.156E-04
                                 2000 K:  5.091E-04
     Gibbs Energy Amb. (kJ/mol),  293 K: -1.515E+02
                                  500 K: -1.935E+02
                                 1000 K: -3.057E+02
                                 1500 K: -4.274E+02
                                 2000 K: -5.560E+02


 Gas Phase Reaction Information

   Solver Details:  

      ODE Solver:  EXPLICIT EULER

      Fuel                                           Heat of Combustion (kJ/kg)
      PROPANE                                                        44595.4343
      EPUMO2:                                                        12780.1829

      Primitive Species Stoich. Coeff.
      Species ID                                                          Molar
      NITROGEN                                                         0.000000
      OXYGEN                                                          -4.808561
      CARBON DIOXIDE                                                   2.800689
      WATER VAPOR                                                      4.000000
      CARBON MONOXIDE                                                  0.015743
      SOOT                                                             0.183568
      PROPANE                                                         -1.000000

      Tracked (Lumped) Species Stoich. Coeff.
      Species ID                                             Molar         Mass
      AIR                                               -23.167218   -15.105888
      PROPANE                                            -1.000000    -1.000000
      PRODUCTS                                           25.358658    16.105888

      Reaction Kinetics

      Fast chemistry

      Extinction Model:  EXTINCTION 1
      Auto-Ignition Temperature (C):            -273.1
      Critical Flame Temperature (C):           1447.0

      Prescribed Radiative Fraction:             0.290


 Material Information

   1 CONCRETE
     Emissivity:                                  0.900
     Density (kg/m3):                            2200.0
     Specific Heat (kJ/kg/K) Ambient,  293 K:  8.800E-01
                                       350 K:  8.800E-01
                                       500 K:  8.800E-01
                                       800 K:  8.800E-01
     Therm. Cond. (W/m/K) Ambient,     293 K:  1.000E+00
                                       350 K:  1.000E+00
                                       500 K:  1.000E+00
                                       800 K:  1.000E+00
     Enthalpy (kJ/kg) Ambient,         293 K:  2.578E+02
                                       350 K:  3.080E+02
                                       500 K:  4.400E+02
                                       800 K:  7.040E+02


 Surface Conditions

   0 INERT

   1 INERT (DEFAULT)
     Material List
          1  CONCRETE
     Layer  1
        Thickness   (m):  0.15000
        Density (kg/m3):  2200.00
        CONCRETE, Mass fraction:    1.00
     Reaction products considered from the first -1.00 layers.
     Total surface density   330.000 kg/m2
     Solid Phase Node, Layer, Coordinates(m):
                    0      1       0.0000000
                    1      1       0.0005906
                    2      1       0.0017717
                    3      1       0.0041339
                    4      1       0.0088583
                    5      1       0.0183071
                    6      1       0.0372047
                    7      1       0.0750000
                    8      1       0.1127953
                    9      1       0.1316929
                   10      1       0.1411417
                   11      1       0.1458661
                   12      1       0.1482283
                   13      1       0.1494094
                   14      1       0.1500000
     Exposed Backing

   2 FLOOR

   3 5
     HRR Per Unit Area (kW/m2)        800.0
     PROPANE Mass Flux (kg/s/m2)   1.794E-02

   4 11
     HRR Per Unit Area (kW/m2)        800.0
     PROPANE Mass Flux (kg/s/m2)   1.794E-02

   5 14
     HRR Per Unit Area (kW/m2)        800.0
     PROPANE Mass Flux (kg/s/m2)   1.794E-02

   6 OPEN
     Passive Vent to Atmosphere

   7 MIRROR
     Symmetry Plane

   8 INTERPOLATED

   9 PERIODIC

  10 HVAC

  11 MASSLESS TRACER

  12 DROPLET

  13 MASSLESS TARGET

  14 PERIODIC FLOW ONLY


 Lagrangian Particle Classes


 Cut-off Density and Temperature

    Minimum Temperature:  -259.1 C
    Maximum Temperature:  2726.8 C
    Minimum Density:  1.195E-01 kg/m3
    Maximum Density:  7.677E+01 kg/m3


 Device Information

   1 ID: TEMP_0
     QUANTITY: TEMPERATURE
     Coordinates (X,Y,Z):    2.500000E+00    2.500000E+00    1.200000E+00
     TEMPORAL STATISTIC: TIME AVERAGE
   2 ID: TEMP_1
     QUANTITY: TEMPERATURE
     Coordinates (X,Y,Z):    7.500000E+00    2.500000E+00    1.200000E+00
     TEMPORAL STATISTIC: TIME AVERAGE
   3 ID: TEMP_2
     QUANTITY: TEMPERATURE
     Coordinates (X,Y,Z):    1.250000E+01    2.500000E+00    1.200000E+00
     TEMPORAL STATISTIC: TIME AVERAGE
   4 ID: TEMP_3
     QUANTITY: TEMPERATURE
     Coordinates (X,Y,Z):    1.750000E+01    2.500000E+00    1.200000E+00
     TEMPORAL STATISTIC: TIME AVERAGE
   5 ID: TEMP_4
     QUANTITY: TEMPERATURE
     Coordinates (X,Y,Z):    2.500000E+00    7.500000E+00    1.200000E+00
     TEMPORAL STATISTIC: TIME AVERAGE
   6 ID: TEMP_5
     QUANTITY: TEMPERATURE
     Coordinates (X,Y,Z):    7.500000E+00    7.500000E+00    1.200000E+00
     TEMPORAL STATISTIC: TIME AVERAGE
   7 ID: TEMP_6
     QUANTITY: TEMPERATURE
     Coordinates (X,Y,Z):    1.250000E+01    7.500000E+00    1.200000E+00
     TEMPORAL STATISTIC: TIME AVERAGE
   8 ID: TEMP_7
     QUANTITY: TEMPERATURE
     Coordinates (X,Y,Z):    1.750000E+01    7.500000E+00    1.200000E+00
     TEMPORAL STATISTIC: TIME AVERAGE
   9 ID: TEMP_8
     QUANTITY: TEMPERATURE
     Coordinates (X,Y,Z):    2.500000E+00    1.250000E+01    1.200000E+00
     TEMPORAL STATISTIC: TIME AVERAGE
  10 ID: TEMP_9
     QUANTITY: TEMPERATURE
     Coordinates (X,Y,Z):    7.500000E+00    1.250000E+01    1.200000E+00
     TEMPORAL STATISTIC: TIME AVERAGE
  11 ID: TEMP_10
     QUANTITY: TEMPERATURE
     Coordinates (X,Y,Z):    1.250000E+01    1.250000E+01    1.200000E+00
     TEMPORAL STATISTIC: TIME AVERAGE
  12 ID: TEMP_11
     QUANTITY: TEMPERATURE
     Coordinates (X,Y,Z):    1.750000E+01    1.250000E+01    1.200000E+00
     TEMPORAL STATISTIC: TIME AVERAGE
  13 ID: TEMP_12
     QUANTITY: TEMPERATURE
     Coordinates (X,Y,Z):    2.500000E+00    1.750000E+01    1.200000E+00
     TEMPORAL STATISTIC: TIME AVERAGE
  14 ID: TEMP_13
     QUANTITY: TEMPERATURE
     Coordinates (X,Y,Z):    7.500000E+00    1.750000E+01    1.200000E+00
     TEMPORAL STATISTIC: TIME AVERAGE
  15 ID: TEMP_14
     QUANTITY: TEMPERATURE
     Coordinates (X,Y,Z):    1.250000E+01    1.750000E+01    1.200000E+00
     TEMPORAL STATISTIC: TIME AVERAGE
  16 ID: TEMP_15
     QUANTITY: TEMPERATURE
     Coordinates (X,Y,Z):    1.750000E+01    1.750000E+01    1.200000E+00
     TEMPORAL STATISTIC: TIME AVERAGE
  17 ID: TEMP_16
     QUANTITY: TEMPERATURE
     Coordinates (X,Y,Z):    2.500000E+00    2.250000E+01    1.200000E+00
     TEMPORAL STATISTIC: TIME AVERAGE
  18 ID: TEMP_17
     QUANTITY: TEMPERATURE
     Coordinates (X,Y,Z):    7.500000E+00    2.250000E+01    1.200000E+00
     TEMPORAL STATISTIC: TIME AVERAGE
  19 ID: TEMP_18
     QUANTITY: TEMPERATURE
     Coordinates (X,Y,Z):    1.250000E+01    2.250000E+01    1.200000E+00
     TEMPORAL STATISTIC: TIME AVERAGE
  20 ID: TEMP_19
     QUANTITY: TEMPERATURE
     Coordinates (X,Y,Z):    1.750000E+01    2.250000E+01    1.200000E+00
     TEMPORAL STATISTIC: TIME AVERAGE
  21 ID: TEMP_20
     QUANTITY: TEMPERATURE
     Coordinates (X,Y,Z):    2.500000E+00    2.750000E+01    1.200000E+00
     TEMPORAL STATISTIC: TIME AVERAGE
  22 ID: TEMP_21
     QUANTITY: TEMPERATURE
     Coordinates (X,Y,Z):    7.500000E+00    2.750000E+01    1.200000E+00
     TEMPORAL STATISTIC: TIME AVERAGE
  23 ID: TEMP_22
     QUANTITY: TEMPERATURE
     Coordinates (X,Y,Z):    1.250000E+01    2.750000E+01    1.200000E+00
     TEMPORAL STATISTIC: TIME AVERAGE
  24 ID: TEMP_23
     QUANTITY: TEMPERATURE
     Coordinates (X,Y,Z):    1.750000E+01    2.750000E+01    1.200000E+00
     TEMPORAL STATISTIC: TIME AVERAGE


 Isosurface File Information

   1 Quantity: TEMPERATURE, VALUE(s):  50.000
   2 Quantity: TEMPERATURE, VALUE(s): 100.000


 Slice File Information, Mesh     1

   1 Nodes:   0  22   0  32   2   2, Quantity: SOOT MASS FRACTION
   2 Nodes:   0  22   0  32   2   2, Quantity: TEMPERATURE


 Radiation Model Information

   Number of control angles  104
   Time step increment         3
   Angle increment             5
   Theta band N_phi   Solid angle
     1:        4     0.120
     2:       12     0.114
     3:       16     0.127
     4:       20     0.120
     5:       20     0.120
     6:       16     0.127
     7:       12     0.114
     8:        4     0.120
   Using gray gas absorption.
   Mean beam length  1.000E-01 m


 Pressure Zone Information

   1 Volume: 1.8000E+03 m3, Cells: 1800, Mesh: 1, Indices: (21,31,3)
 
 

 Run Time Diagnostics

       Time Step        1   November 19, 2025  05:34:14
       Step Size:  0.922E+00 s, Total Time:    0.92183 s
       Pressure Iterations: 1
       Maximum Velocity Error:  0.37E-02 on Mesh 1 at (11,8,2)
       Maximum Pressure Error:  0.29E-03 on Mesh 1 at (9,9,1)
       ---------------------------------------------------------------
       Max CFL number:  0.20E-01 at (3,13,2)
       Max divergence:  0.10E-05 at (6,1,2)
       Min divergence: -0.23E-03 at (14,19,1)
       Max VN number :  0.25E-01 at (15,17,2)
 
       Time Step        2   November 19, 2025  05:34:14
       Step Size:  0.922E+00 s, Total Time:    1.84365 s
       Pressure Iterations: 1
       Maximum Velocity Error:  0.88E-02 on Mesh 1 at (21,14,2)
       Maximum Pressure Error:  0.59E-01 on Mesh 1 at (9,9,1)
       ---------------------------------------------------------------
       Max CFL number:  0.20E-01 at (3,13,2)
       Max divergence:  0.20E+00 at (19,14,1)
       Min divergence: -0.36E-03 at (17,27,3)
       Max VN number :  0.27E-01 at (7,24,2)
 
       Time Step        3   November 19, 2025  05:34:14
       Step Size:  0.922E+00 s, Total Time:    2.76548 s
       Pressure Iterations: 1
       Maximum Velocity Error:  0.21E-01 on Mesh 1 at (15,21,1)
       Maximum Pressure Error:  0.20E+00 on Mesh 1 at (14,19,1)
       ---------------------------------------------------------------
       Max CFL number:  0.25E+00 at (14,19,1)
       Max divergence:  0.30E+00 at (14,19,1)
       Min divergence: -0.63E-03 at (16,26,2)
       Max VN number :  0.37E-01 at (19,14,1)
 
       Time Step        4   November 19, 2025  05:34:14
       Step Size:  0.757E+00 s, Total Time:    3.52269 s
       Pressure Iterations: 1
       Maximum Velocity Error:  0.37E-01 on Mesh 1 at (21,16,1)
       Maximum Pressure Error:  0.25E+00 on Mesh 1 at (9,9,1)
       ---------------------------------------------------------------
       Max CFL number:  0.82E+00 at (14,19,1)
       Max divergence:  0.27E+00 at (14,19,1)
       Min divergence: -0.12E-02 at (16,22,1)
       Max VN number :  0.12E+00 at (14,19,2)
 
       Time Step        5   November 19, 2025  05:34:14
       Step Size:  0.346E+00 s, Total Time:    3.86913 s
       Pressure Iterations: 1
       Maximum Velocity Error:  0.33E-01 on Mesh 1 at (21,16,1)
       Maximum Pressure Error:  0.86E+00 on Mesh 1 at (19,14,1)
       ---------------------------------------------------------------
       Max CFL number:  0.68E+00 at (14,19,1)
       Max divergence:  0.31E+00 at (14,19,1)
       Min divergence: -0.18E-02 at (16,22,1)
       Max VN number :  0.21E+00 at (14,19,2)
 
       Time Step        6   November 19, 2025  05:34:14
       Step Size:  0.381E+00 s, Total Time:    4.25023 s
       Pressure Iterations: 1
       Maximum Velocity Error:  0.20E-01 on Mesh 1 at (17,16,1)
       Maximum Pressure Error:  0.34E+00 on Mesh 1 at (19,14,1)
       ---------------------------------------------------------------
       Max CFL number:  0.10E+01 at (19,14,1)
       Max divergence:  0.20E+00 at (14,19,1)
       Min divergence: -0.19E-02 at (16,22,1)
       Max VN number :  0.38E+00 at (14,19,2)
 
       Time Step        7   November 19, 2025  05:34:14
       Step Size:  0.324E+00 s, Total Time:    4.57393 s
       Pressure Iterations: 1
       Maximum Velocity Error:  0.14E-01 on Mesh 1 at (21,21,1)
       Maximum Pressure Error:  0.10E+01 on Mesh 1 at (19,14,3)
       ---------------------------------------------------------------
       Max CFL number:  0.87E+00 at (19,14,1)
       Max divergence:  0.22E+00 at (14,19,1)
       Min divergence: -0.21E-02 at (16,22,1)
       Max VN number :  0.43E+00 at (14,19,2)
 
       Time Step        8   November 19, 2025  05:34:14
       Step Size:  0.270E+00 s, Total Time:    4.84378 s
       Pressure Iterations: 1
       Maximum Velocity Error:  0.12E-01 on Mesh 1 at (16,21,2)
       Maximum Pressure Error:  0.75E+00 on Mesh 1 at (19,14,3)
       ---------------------------------------------------------------
       Max CFL number:  0.86E+00 at (14,19,3)
       Max divergence:  0.27E+00 at (14,19,1)
       Min divergence: -0.37E-01 at (14,19,3)
       Max VN number :  0.43E+00 at (14,19,2)
 
       Time Step        9   November 19, 2025  05:34:14
       Step Size:  0.270E+00 s, Total Time:    5.11362 s
       Pressure Iterations: 1
       Maximum Velocity Error:  0.14E-01 on Mesh 1 at (16,21,1)
       Maximum Pressure Error:  0.42E+00 on Mesh 1 at (19,14,3)
       ---------------------------------------------------------------
       Max CFL number:  0.95E+00 at (19,14,3)
       Max divergence:  0.30E+00 at (14,19,1)
       Min divergence: -0.45E-01 at (9,9,3)
       Max VN number :  0.44E+00 at (19,14,2)
 
       Time Step       10   November 19, 2025  05:34:14
       Step Size:  0.270E+00 s, Total Time:    5.38347 s
       Pressure Iterations: 1
       Maximum Velocity Error:  0.15E-01 on Mesh 1 at (16,21,1)
       Maximum Pressure Error:  0.19E+00 on Mesh 1 at (9,9,1)
       ---------------------------------------------------------------
       Max CFL number:  0.98E+00 at (19,14,3)
       Max divergence:  0.34E+00 at (14,19,1)
       Min divergence: -0.38E-01 at (9,9,3)
       Max VN number :  0.42E+00 at (19,14,2)
 
       Time Step       20   November 19, 2025  05:34:14
       Step Size:  0.270E+00 s, Total Time:    8.08193 s
       Pressure Iterations: 1
       Maximum Velocity Error:  0.19E-01 on Mesh 1 at (12,21,3)
       Maximum Pressure Error:  0.24E+00 on Mesh 1 at (9,9,1)
       ---------------------------------------------------------------
       Max CFL number:  0.10E+01 at (14,19,3)
       Max divergence:  0.44E+00 at (19,14,1)
       Min divergence: -0.33E-01 at (13,18,3)
       Max VN number :  0.60E+00 at (18,13,3)
 
       Time Step       30   November 19, 2025  05:34:15
       Step Size:  0.242E+00 s, Total Time:   10.50358 s
       Pressure Iterations: 1
       Maximum Velocity Error:  0.12E-01 on Mesh 1 at (11,21,1)
       Maximum Pressure Error:  0.29E+00 on Mesh 1 at (19,14,1)
       ---------------------------------------------------------------
       Max CFL number:  0.96E+00 at (9,9,2)
       Max divergence:  0.59E+00 at (14,19,1)
       Min divergence: -0.28E-01 at (13,20,3)
       Max VN number :  0.50E+00 at (18,15,3)
 
       Time Step       40   November 19, 2025  05:34:15
       Step Size:  0.217E+00 s, Total Time:   12.87530 s
       Pressure Iterations: 1
       Maximum Velocity Error:  0.23E-01 on Mesh 1 at (14,16,3)
       Maximum Pressure Error:  0.69E+00 on Mesh 1 at (9,9,1)
       ---------------------------------------------------------------
       Max CFL number:  0.91E+00 at (9,9,2)
       Max divergence:  0.67E+00 at (14,19,1)
       Min divergence: -0.34E-01 at (9,9,3)
       Max VN number :  0.62E+00 at (17,13,2)
 
       Time Step       50   November 19, 2025  05:34:15
       Step Size:  0.195E+00 s, Total Time:   14.98168 s
       Pressure Iterations: 1
       Maximum Velocity Error:  0.22E-01 on Mesh 1 at (16,17,3)
       Maximum Pressure Error:  0.48E+00 on Mesh 1 at (9,9,1)
       ---------------------------------------------------------------
       Max CFL number:  0.84E+00 at (9,9,2)
       Max divergence:  0.71E+00 at (14,19,1)
       Min divergence: -0.50E-01 at (9,9,3)
       Max VN number :  0.94E+00 at (13,17,2)
 
       Time Step       60   November 19, 2025  05:34:15
       Step Size:  0.195E+00 s, Total Time:   16.93498 s
       Pressure Iterations: 1
       Maximum Velocity Error:  0.14E-01 on Mesh 1 at (21,16,3)
       Maximum Pressure Error:  0.28E+00 on Mesh 1 at (9,9,1)
       ---------------------------------------------------------------
       Max CFL number:  0.85E+00 at (9,9,2)
       Max divergence:  0.78E+00 at (19,14,1)
       Min divergence: -0.42E-01 at (20,15,3)
       Max VN number :  0.97E+00 at (15,17,2)
 
       Time Step       70   November 19, 2025  05:34:16
       Step Size:  0.195E+00 s, Total Time:   18.88828 s
       Pressure Iterations: 1
       Maximum Velocity Error:  0.18E-01 on Mesh 1 at (21,13,3)
       Maximum Pressure Error:  0.43E+00 on Mesh 1 at (20,14,3)
       ---------------------------------------------------------------
       Max CFL number:  0.88E+00 at (14,19,2)
       Max divergence:  0.84E+00 at (19,14,1)
       Min divergence: -0.45E-01 at (14,20,3)
       Max VN number :  0.83E+00 at (17,15,2)
 
       Time Step       80   November 19, 2025  05:34:16
       Step Size:  0.195E+00 s, Total Time:   20.84158 s
       Pressure Iterations: 1
       Maximum Velocity Error:  0.21E-01 on Mesh 1 at (21,12,3)
       Maximum Pressure Error:  0.29E+00 on Mesh 1 at (19,14,3)
       ---------------------------------------------------------------
       Max CFL number:  0.92E+00 at (9,9,2)
       Max divergence:  0.89E+00 at (14,19,1)
       Min divergence: -0.53E-01 at (20,15,3)
       Max VN number :  0.81E+00 at (11,10,2)
 
       Time Step       90   November 19, 2025  05:34:16
       Step Size:  0.195E+00 s, Total Time:   22.79487 s
       Pressure Iterations: 1
       Maximum Velocity Error:  0.22E-01 on Mesh 1 at (16,21,3)
       Maximum Pressure Error:  0.51E+00 on Mesh 1 at (9,9,1)
       ---------------------------------------------------------------
       Max CFL number:  0.94E+00 at (9,9,2)
       Max divergence:  0.89E+00 at (14,19,1)
       Min divergence: -0.68E-01 at (15,20,3)
       Max VN number :  0.97E+00 at (21,15,2)
 
       Time Step      100   November 19, 2025  05:34:16
       Step Size:  0.195E+00 s, Total Time:   24.74817 s
       Pressure Iterations: 1
       Maximum Velocity Error:  0.32E-01 on Mesh 1 at (16,19,3)
       Maximum Pressure Error:  0.39E+00 on Mesh 1 at (15,19,3)
       ---------------------------------------------------------------
       Max CFL number:  0.95E+00 at (9,9,2)
       Max divergence:  0.92E+00 at (14,19,1)
       Min divergence: -0.46E-01 at (19,11,2)
       Max VN number :  0.86E+00 at (21,15,2)
 
       Time Step      200   November 19, 2025  05:34:19
       Step Size:  0.137E+00 s, Total Time:   40.26746 s
       Pressure Iterations: 1
       Maximum Velocity Error:  0.25E-01 on Mesh 1 at (9,11,3)
       Maximum Pressure Error:  0.43E+00 on Mesh 1 at (9,11,3)
       ---------------------------------------------------------------
       Max CFL number:  0.64E+00 at (9,9,1)
       Max divergence:  0.12E+01 at (19,14,1)
       Min divergence: -0.20E+00 at (11,19,2)
       Max VN number :  0.91E+00 at (12,18,2)
 
       Time Step      300   November 19, 2025  05:34:21
       Step Size:  0.168E+00 s, Total Time:   57.52368 s
       Pressure Iterations: 1
       Maximum Velocity Error:  0.31E-01 on Mesh 1 at (9,11,3)
       Maximum Pressure Error:  0.63E+00 on Mesh 1 at (8,10,3)
       ---------------------------------------------------------------
       Max CFL number:  0.70E+00 at (9,9,1)
       Max divergence:  0.96E+00 at (19,14,1)
       Min divergence: -0.16E+00 at (6,9,2)
       Max VN number :  0.86E+00 at (18,16,2)
 
       Time Step      400   November 19, 2025  05:34:24
       Step Size:  0.176E+00 s, Total Time:   75.74155 s
       Pressure Iterations: 1
       Maximum Velocity Error:  0.26E-01 on Mesh 1 at (8,11,1)
       Maximum Pressure Error:  0.37E+00 on Mesh 1 at (9,11,3)
       ---------------------------------------------------------------
       Max CFL number:  0.67E+00 at (14,19,1)
       Max divergence:  0.92E+00 at (14,19,1)
       Min divergence: -0.13E+00 at (11,19,2)
       Max VN number :  0.90E+00 at (13,21,2)
 
       Time Step      500   November 19, 2025  05:34:26
       Step Size:  0.169E+00 s, Total Time:   92.86659 s
       Pressure Iterations: 1
       Maximum Velocity Error:  0.52E-01 on Mesh 1 at (15,21,1)
       Maximum Pressure Error:  0.88E+00 on Mesh 1 at (15,21,1)
       ---------------------------------------------------------------
       Max CFL number:  0.68E+00 at (14,19,1)
       Max divergence:  0.98E+00 at (9,9,1)
       Min divergence: -0.14E+00 at (11,19,2)
       Max VN number :  0.94E+00 at (8,11,2)
 
       Time Step      600   November 19, 2025  05:34:29
       Step Size:  0.164E+00 s, Total Time:  109.15109 s
       Pressure Iterations: 1
       Maximum Velocity Error:  0.18E-01 on Mesh 1 at (19,16,1)
       Maximum Pressure Error:  0.35E+00 on Mesh 1 at (9,10,1)
       ---------------------------------------------------------------
       Max CFL number:  0.66E+00 at (9,9,2)
       Max divergence:  0.85E+00 at (19,14,1)
       Min divergence: -0.12E+00 at (12,19,2)
       Max VN number :  0.90E+00 at (13,21,2)
 
       Time Step      700   November 19, 2025  05:34:32
       Step Size:  0.161E+00 s, Total Time:  125.80550 s
       Pressure Iterations: 1
       Maximum Velocity Error:  0.29E-01 on Mesh 1 at (16,17,3)
       Maximum Pressure Error:  0.12E+01 on Mesh 1 at (9,9,3)
       ---------------------------------------------------------------
       Max CFL number:  0.72E+00 at (9,9,1)
       Max divergence:  0.91E+00 at (14,19,1)
       Min divergence: -0.13E+00 at (6,9,2)
       Max VN number :  0.88E+00 at (21,13,2)
 
       Time Step      800   November 19, 2025  05:34:35
       Step Size:  0.161E+00 s, Total Time:  141.87933 s
       Pressure Iterations: 1
       Maximum Velocity Error:  0.32E-01 on Mesh 1 at (10,11,1)
       Maximum Pressure Error:  0.76E+00 on Mesh 1 at (10,11,1)
       ---------------------------------------------------------------
       Max CFL number:  0.60E+00 at (9,9,1)
       Max divergence:  0.93E+00 at (9,9,1)
       Min divergence: -0.10E+00 at (9,6,2)
       Max VN number :  0.85E+00 at (21,13,2)
 
       Time Step      900   November 19, 2025  05:34:38
       Step Size:  0.170E+00 s, Total Time:  158.63606 s
       Pressure Iterations: 1
       Maximum Velocity Error:  0.23E-01 on Mesh 1 at (21,16,1)
       Maximum Pressure Error:  0.38E+00 on Mesh 1 at (21,16,1)
       ---------------------------------------------------------------
       Max CFL number:  0.65E+00 at (14,19,1)
       Max divergence:  0.93E+00 at (19,14,1)
       Min divergence: -0.14E+00 at (9,6,2)
       Max VN number :  0.98E+00 at (8,11,2)
 
       Time Step     1000   November 19, 2025  05:34:40
       Step Size:  0.184E+00 s, Total Time:  175.84601 s
       Pressure Iterations: 1
       Maximum Velocity Error:  0.35E-01 on Mesh 1 at (9,11,1)
       Maximum Pressure Error:  0.50E+00 on Mesh 1 at (9,11,1)
       ---------------------------------------------------------------
       Max CFL number:  0.70E+00 at (19,14,1)
       Max divergence:  0.96E+00 at (9,9,1)
       Min divergence: -0.11E+00 at (12,19,2)
       Max VN number :  0.86E+00 at (13,21,2)
 
       Time Step     1100   November 19, 2025  05:34:43
       Step Size:  0.172E+00 s, Total Time:  194.06707 s
       Pressure Iterations: 1
       Maximum Velocity Error:  0.46E-01 on Mesh 1 at (18,16,1)
       Maximum Pressure Error:  0.45E+00 on Mesh 1 at (18,16,1)
       ---------------------------------------------------------------
       Max CFL number:  0.67E+00 at (14,19,1)
       Max divergence:  0.95E+00 at (9,9,1)
       Min divergence: -0.11E+00 at (12,19,2)
       Max VN number :  0.89E+00 at (21,13,2)
 
       Time Step     1200   November 19, 2025  05:34:46
       Step Size:  0.165E+00 s, Total Time:  210.53488 s
       Pressure Iterations: 1
       Maximum Velocity Error:  0.36E-01 on Mesh 1 at (8,11,1)
       Maximum Pressure Error:  0.49E+01 on Mesh 1 at (19,15,1)
       ---------------------------------------------------------------
       Max CFL number:  0.65E+00 at (9,9,1)
       Max divergence:  0.93E+00 at (9,9,1)
       Min divergence: -0.10E+00 at (6,9,2)
       Max VN number :  0.87E+00 at (13,21,2)
 
       Time Step     1300   November 19, 2025  05:34:48
       Step Size:  0.195E+00 s, Total Time:  227.77382 s
       Pressure Iterations: 2
       Maximum Velocity Error:  0.34E-01 on Mesh 1 at (21,14,1)
       Maximum Pressure Error:  0.66E+01 on Mesh 1 at (20,14,1)
       ---------------------------------------------------------------
       Max CFL number:  0.71E+00 at (20,14,1)
       Max divergence:  0.89E+00 at (9,9,1)
       Min divergence: -0.11E+00 at (9,6,2)
       Max VN number :  0.92E+00 at (10,11,2)
 
       Time Step     1400   November 19, 2025  05:34:51
       Step Size:  0.194E+00 s, Total Time:  246.15790 s
       Pressure Iterations: 1
       Maximum Velocity Error:  0.34E-01 on Mesh 1 at (8,11,1)
       Maximum Pressure Error:  0.93E+00 on Mesh 1 at (9,9,1)
       ---------------------------------------------------------------
       Max CFL number:  0.90E+00 at (9,9,1)
       Max divergence:  0.88E+00 at (14,20,1)
       Min divergence: -0.10E+00 at (9,6,2)
       Max VN number :  0.83E+00 at (10,10,3)
 
       Time Step     1500   November 19, 2025  05:34:54
       Step Size:  0.180E+00 s, Total Time:  265.46529 s
       Pressure Iterations: 1
       Maximum Velocity Error:  0.15E+00 on Mesh 1 at (14,21,3)
       Maximum Pressure Error:  0.96E+01 on Mesh 1 at (14,21,3)
       ---------------------------------------------------------------
       Max CFL number:  0.66E+00 at (9,9,1)
       Max divergence:  0.79E+00 at (9,9,1)
       Min divergence: -0.10E+00 at (19,11,3)
       Max VN number :  0.93E+00 at (8,10,1)
 
       Time Step     1600   November 19, 2025  05:34:57
       Step Size:  0.165E+00 s, Total Time:  285.71988 s
       Pressure Iterations: 1
       Maximum Velocity Error:  0.37E-01 on Mesh 1 at (13,21,3)
       Maximum Pressure Error:  0.26E+01 on Mesh 1 at (13,19,1)
       ---------------------------------------------------------------
       Max CFL number:  0.63E+00 at (9,9,2)
       Max divergence:  0.95E+00 at (9,9,1)
       Min divergence: -0.13E+00 at (11,19,2)
       Max VN number :  0.90E+00 at (8,11,2)
 
       Time Step     1700   November 19, 2025  05:34:59
       Step Size:  0.196E+00 s, Total Time:  302.82605 s
       Pressure Iterations: 1
       Maximum Velocity Error:  0.33E-01 on Mesh 1 at (9,11,1)
       Maximum Pressure Error:  0.23E+01 on Mesh 1 at (13,19,1)
       ---------------------------------------------------------------
       Max CFL number:  0.76E+00 at (12,19,2)
       Max divergence:  0.84E+00 at (9,9,1)
       Min divergence: -0.82E-01 at (9,6,2)
       Max VN number :  0.82E+00 at (8,11,2)
 
       Time Step     1800   November 19, 2025  05:35:02
       Step Size:  0.219E+00 s, Total Time:  321.42387 s
       Pressure Iterations: 1
       Maximum Velocity Error:  0.13E+00 on Mesh 1 at (11,21,1)
       Maximum Pressure Error:  0.11E+01 on Mesh 1 at (12,21,1)
       ---------------------------------------------------------------
       Max CFL number:  0.84E+00 at (9,9,1)
       Max divergence:  0.79E+00 at (9,9,1)
       Min divergence: -0.94E-01 at (11,9,2)
       Max VN number :  0.88E+00 at (10,11,2)
 
       Time Step     1900   November 19, 2025  05:35:05
       Step Size:  0.208E+00 s, Total Time:  342.03217 s
       Pressure Iterations: 1
       Maximum Velocity Error:  0.66E-01 on Mesh 1 at (9,11,1)
       Maximum Pressure Error:  0.84E+01 on Mesh 1 at (9,10,1)
       ---------------------------------------------------------------
       Max CFL number:  0.66E+00 at (6,9,2)
       Max divergence:  0.44E+00 at (12,19,2)
       Min divergence: -0.26E+00 at (9,10,1)
       Max VN number :  0.80E+00 at (10,10,1)
 
       Time Step     2000   November 19, 2025  05:35:07
       Step Size:  0.246E+00 s, Total Time:  364.89332 s
       Pressure Iterations: 1
       Maximum Velocity Error:  0.11E+00 on Mesh 1 at (8,11,1)
       Maximum Pressure Error:  0.38E+01 on Mesh 1 at (8,11,1)
       ---------------------------------------------------------------
       Max CFL number:  0.88E+00 at (12,19,2)
       Max divergence:  0.59E+00 at (12,19,1)
       Min divergence: -0.15E+00 at (12,19,2)
       Max VN number :  0.70E+00 at (7,10,1)
 
       Time Step     2100   November 19, 2025  05:35:10
       Step Size:  0.245E+00 s, Total Time:  388.27566 s
       Pressure Iterations: 1
       Maximum Velocity Error:  0.64E-01 on Mesh 1 at (11,19,3)
       Maximum Pressure Error:  0.34E+01 on Mesh 1 at (7,8,1)
       ---------------------------------------------------------------
       Max CFL number:  0.89E+00 at (6,9,2)
       Max divergence:  0.40E+00 at (11,19,2)
       Min divergence: -0.54E-01 at (8,8,3)
       Max VN number :  0.67E+00 at (10,8,3)
 
       Time Step     2200   November 19, 2025  05:35:13
       Step Size:  0.265E+00 s, Total Time:  411.88857 s
       Pressure Iterations: 1
       Maximum Velocity Error:  0.30E-01 on Mesh 1 at (6,17,1)
       Maximum Pressure Error:  0.25E+00 on Mesh 1 at (12,21,1)
       ---------------------------------------------------------------
       Max CFL number:  0.73E+00 at (6,9,2)
       Max divergence:  0.32E+00 at (7,9,1)
       Min divergence: -0.30E-01 at (4,6,2)
       Max VN number :  0.73E+00 at (8,7,2)
 
       Time Step     2300   November 19, 2025  05:35:15
       Step Size:  0.242E+00 s, Total Time:  438.45700 s
       Pressure Iterations: 1
       Maximum Velocity Error:  0.51E-01 on Mesh 1 at (11,20,2)
       Maximum Pressure Error:  0.28E+01 on Mesh 1 at (12,19,1)
       ---------------------------------------------------------------
       Max CFL number:  0.84E+00 at (12,19,2)
       Max divergence:  0.57E+00 at (7,9,1)
       Min divergence: -0.64E-01 at (7,9,2)
       Max VN number :  0.88E+00 at (15,21,2)
 
       Time Step     2400   November 19, 2025  05:35:18
       Step Size:  0.193E+00 s, Total Time:  460.70128 s
       Pressure Iterations: 1
       Maximum Velocity Error:  0.39E-01 on Mesh 1 at (11,18,1)
       Maximum Pressure Error:  0.47E+00 on Mesh 1 at (11,20,1)
       ---------------------------------------------------------------
       Max CFL number:  0.64E+00 at (11,18,2)
       Max divergence:  0.58E+00 at (11,18,2)
       Min divergence: -0.71E-01 at (6,19,2)
       Max VN number :  0.80E+00 at (8,21,2)
 
       Time Step     2500   November 19, 2025  05:35:21
       Step Size:  0.286E+00 s, Total Time:  486.02289 s
       Pressure Iterations: 1
       Maximum Velocity Error:  0.66E-01 on Mesh 1 at (9,16,1)
       Maximum Pressure Error:  0.41E+01 on Mesh 1 at (10,18,1)
       ---------------------------------------------------------------
       Max CFL number:  0.82E+00 at (6,19,2)
       Max divergence:  0.31E+00 at (10,20,1)
       Min divergence: -0.76E-01 at (6,19,2)
       Max VN number :  0.85E+00 at (9,21,2)
 
       Time Step     2600   November 19, 2025  05:35:24
       Step Size:  0.267E+00 s, Total Time:  512.02263 s
       Pressure Iterations: 1
       Maximum Velocity Error:  0.62E-01 on Mesh 1 at (6,18,3)
       Maximum Pressure Error:  0.14E+01 on Mesh 1 at (7,18,1)
       ---------------------------------------------------------------
       Max CFL number:  0.86E+00 at (7,19,2)
       Max divergence:  0.43E+00 at (7,19,2)
       Min divergence: -0.75E-01 at (12,19,2)
       Max VN number :  0.67E+00 at (5,20,3)
 
       Time Step     2700   November 19, 2025  05:35:27
       Step Size:  0.339E+00 s, Total Time:  539.13128 s
       Pressure Iterations: 1
       Maximum Velocity Error:  0.98E-01 on Mesh 1 at (6,21,1)
       Maximum Pressure Error:  0.40E+00 on Mesh 1 at (7,21,1)
       ---------------------------------------------------------------
       Max CFL number:  0.94E+00 at (7,20,1)
       Max divergence:  0.33E+00 at (7,19,2)
       Min divergence: -0.74E-01 at (12,19,2)
       Max VN number :  0.67E+00 at (6,18,2)
 
       Time Step     2800   November 19, 2025  05:35:29
       Step Size:  0.294E+00 s, Total Time:  566.61325 s
       Pressure Iterations: 1
       Maximum Velocity Error:  0.79E-01 on Mesh 1 at (6,19,3)
       Maximum Pressure Error:  0.39E+00 on Mesh 1 at (7,19,3)
       ---------------------------------------------------------------
       Max CFL number:  0.83E+00 at (7,19,2)
       Max divergence:  0.37E+00 at (7,19,2)
       Min divergence: -0.65E-01 at (6,19,3)
       Max VN number :  0.79E+00 at (10,17,2)
 
       Time Step     2900   November 19, 2025  05:35:32
       Step Size:  0.311E+00 s, Total Time:  594.35393 s
       Pressure Iterations: 1
       Maximum Velocity Error:  0.67E-01 on Mesh 1 at (6,19,3)
       Maximum Pressure Error:  0.36E+00 on Mesh 1 at (11,21,1)
       ---------------------------------------------------------------
       Max CFL number:  0.71E+00 at (7,19,3)
       Max divergence:  0.15E+00 at (6,19,2)
       Min divergence: -0.53E-01 at (4,22,2)
       Max VN number :  0.78E+00 at (5,20,1)
 
       Time Step     2918   November 19, 2025  05:35:32
       Step Size:  0.266E-01 s, Total Time:  600.00000 s
       Pressure Iterations: 2
       Maximum Velocity Error:  0.67E-01 on Mesh 1 at (7,16,1)
       Maximum Pressure Error:  0.57E+01 on Mesh 1 at (7,21,1)
       ---------------------------------------------------------------
       Max CFL number:  0.55E-01 at (12,19,2)
       Max divergence:  0.22E+01 at (7,19,1)
       Min divergence: -0.92E-01 at (11,18,2)
       Max VN number :  0.90E-01 at (11,18,1)
 


 Time Stepping Wall Clock Time (s):       78.575
 Total Elapsed Wall Clock Time (s):       80.091

STOP: FDS completed successfully (CHID: huh)
