
 Fire Dynamics Simulator

 Current Date     : November 17, 2025  00:16:27
 Revision         : FDS-6.10.1-0-g12efa16-release
 Revision Date    : Wed Apr 2 17:38:58 2025 -0400
 Compiler         : Intel(R) Fortran Compiler for applications running on Intel(R) 64, Version 2025.1.0 Build 20250317
 Compilation Date : Fri-04/04/2025-08:57-AM

 Number of MPI Processes:  1
 Number of OpenMP Threads: 4

 MPI version: 3.1
 MPI library version: Intel(R) MPI Library 2021.6 for Windows* OS

 Hypre library version: v2.32.0
 Sundials library version: v6.7.0

 Job TITLE        : Dynamic Fire Simulation
 Job ID string    : V3


 Grid Dimensions, Mesh     1

   Cells in the X Direction            52
   Cells in the Y Direction            62
   Cells in the Z Direction             3
   Number of Grid Cells              9672


 Physical Dimensions, Mesh     1

   Length (m)                      52.000
   Width  (m)                      62.000
   Height (m)                       3.000

 Miscellaneous Parameters

   Total Number of Grid Cells        9672
   Maximum Cell Aspect Ratio        1.000
   Initial Time Step (s)            0.922
   CFL Velocity Norm                    2
   Simulation Start Time (s)          0.0
   Simulation End Time (s)          600.0
   Background Pressure (Pa)     101325.00
   Ambient Temperature (C)          20.00

   3D Cartesian
   VLES Calculation
   Eddy Viscosity Model:  Deardorff (C_DEARDORFF = 0.10)
   Surface INERT Eddy Viscosity Model:  WALE (C_WALE = 0.60)
   Surface INERT01 Eddy Viscosity Model:  WALE (C_WALE = 0.60)
   Surface FLOOR Eddy Viscosity Model:  WALE (C_WALE = 0.60)
   Surface Kitchen_Fire Eddy Viscosity Model:  WALE (C_WALE = 0.60)
   Surface Living_Fire Eddy Viscosity Model:  WALE (C_WALE = 0.60)
   Turbulent Prandtl Number:         0.50
   Turbulent Schmidt Number:         0.50


 Pressure solver information

   Solver:                            FFT
   Velocity tolerance (m/s):    5.000E-01
   Press eqn res tol (1/s^2):   2.000E+01
   Max pressure iterations:            10


 Background Stratification

      Z (m)     P_0 (Pa)    TMP_0 (C)
   ------------------------------------
        2.50    101295.69     20.00
        1.50    101307.41     20.00
        0.50    101319.13     20.00


 Mass Fraction Transformation Matrix to Convert Species Mixtures (Columns) to Primitive Species (Rows)

                         AIR       PROPANE   PRODUCTS
   NITROGEN              0.762470  0.000000  0.715129
   OXYGEN                0.230997  0.000000  0.000000
   CARBON DIOXIDE        0.000591  0.000000  0.174107
   WATER VAPOR           0.005941  0.000000  0.107038
   CARBON MONOXIDE       0.000000  0.000000  0.000621
   SOOT                  0.000000  0.000000  0.003104
   HYDROGEN              0.000000  0.000000  0.000000
   HYDROGEN CYANIDE      0.000000  0.000000  0.000000
   PROPANE               0.000000  1.000000  0.000000


 Primitive Species Information

   NITROGEN
   Gas Species
   Molecular Weight (g/mol)                28.01340
   Ambient Density (kg/m^3)                1.165
           Enthalpy of Formation (J/kg)  0.000E+00

   OXYGEN
   Gas Species
   Molecular Weight (g/mol)                31.99880
   Ambient Density (kg/m^3)                1.330
           Enthalpy of Formation (J/kg)  0.000E+00

   CARBON DIOXIDE
   Gas Species
   Molecular Weight (g/mol)                44.00950
   Ambient Density (kg/m^3)                1.830
           Enthalpy of Formation (J/kg) -8.941E+06

   WATER VAPOR
   Gas Species
   Molecular Weight (g/mol)                18.01528
   Ambient Density (kg/m^3)                0.749
           Enthalpy of Formation (J/kg) -1.342E+07

   CARBON MONOXIDE
   Gas Species
   Molecular Weight (g/mol)                28.01010
   Ambient Density (kg/m^3)                1.164
           Enthalpy of Formation (J/kg) -3.946E+06

   SOOT
   Gas Species
   Molecular Weight (g/mol)                12.01070
   Ambient Density (kg/m^3)                0.499
           Enthalpy of Formation (J/kg)  0.000E+00

   HYDROGEN
   Gas Species
   Molecular Weight (g/mol)                 2.01588
   Ambient Density (kg/m^3)                0.084
           Enthalpy of Formation (J/kg)  0.000E+00

   HYDROGEN CYANIDE
   Gas Species
   Molecular Weight (g/mol)                27.02534
   Ambient Density (kg/m^3)                1.123
           Enthalpy of Formation (J/kg)  4.924E+06

   PROPANE
   Gas Species
   Molecular Weight (g/mol)                44.09562
   Ambient Density (kg/m^3)                1.833
           Enthalpy of Formation (J/kg) -2.374E+06


 Tracked (Lumped) Species Information

   AIR
   Molecular Weight (g/mol)            28.75198
   Ambient Density (kg/m^3)            1.195
   Initial Mass Fraction               1.000
   Enthalpy of Formation (J/kg)     -8.504E+04

   Sub Species                    Mass Fraction     Mole Fraction
   NITROGEN                       7.624699E-01      7.825727E-01
   OXYGEN                         2.309974E-01      2.075588E-01
   CARBON DIOXIDE                 5.914650E-04      3.864118E-04
   WATER VAPOR                    5.941209E-03      9.482037E-03
 
     Viscosity (kg/m/s) Ambient,  293 K:  1.796E-05
                                  500 K:  2.612E-05
                                 1000 K:  4.125E-05
                                 1500 K:  5.371E-05
                                 2000 K:  6.476E-05
   Therm. Cond. (W/m/K) Ambient,  293 K:  2.556E-02
                                  500 K:  3.814E-02
                                 1000 K:  6.686E-02
                                 1500 K:  9.249E-02
                                 2000 K:  1.153E-01
        Enthalpy (J/kg) Ambient,  293 K: -9.012E+04
                                  500 K:  1.222E+05
                                 1000 K:  6.721E+05
                                 1500 K:  1.270E+06
                                 2000 K:  1.896E+06
    Spec. Heat (J/kg/K) Ambient,  293 K:  1.016E+03
                                  500 K:  1.042E+03
                                 1000 K:  1.156E+03
                                 1500 K:  1.229E+03
                                 2000 K:  1.270E+03
   Diff. Coeff. (m^2/s) Ambient,  293 K:  1.991E-05
                                  500 K:  4.961E-05
                                 1000 K:  1.580E-04
                                 1500 K:  3.095E-04
                                 2000 K:  4.984E-04
     Gibbs Energy Amb. (kJ/mol),  293 K: -5.873E+01
                                  500 K: -1.007E+02
                                 1000 K: -2.117E+02
                                 1500 K: -3.312E+02
                                 2000 K: -4.568E+02

   PROPANE
   Molecular Weight (g/mol)            44.09562
   Ambient Density (kg/m^3)            1.833
   Initial Mass Fraction               0.000
   Enthalpy of Formation (J/kg)     -2.374E+06

   Sub Species                    Mass Fraction     Mole Fraction
   PROPANE                        1.000000E+00      1.000000E+00
 
     Viscosity (kg/m/s) Ambient,  293 K:  8.079E-06
                                  500 K:  1.310E-05
                                 1000 K:  2.234E-05
                                 1500 K:  2.955E-05
                                 2000 K:  3.574E-05
   Therm. Cond. (W/m/K) Ambient,  293 K:  1.821E-02
                                  500 K:  4.581E-02
                                 1000 K:  1.212E-01
                                 1500 K:  1.890E-01
                                 2000 K:  2.465E-01
        Enthalpy (J/kg) Ambient,  293 K: -2.382E+06
                                  500 K: -1.946E+06
                                 1000 K: -2.769E+05
                                 1500 K:  1.900E+06
                                 2000 K:  4.336E+06
    Spec. Heat (J/kg/K) Ambient,  293 K:  1.646E+03
                                  500 K:  2.553E+03
                                 1000 K:  3.960E+03
                                 1500 K:  4.669E+03
                                 2000 K:  5.034E+03
   Diff. Coeff. (m^2/s) Ambient,  293 K:  1.110E-05
                                  500 K:  2.862E-05
                                 1000 K:  9.316E-05
                                 1500 K:  1.833E-04
                                 2000 K:  2.954E-04
     Gibbs Energy Amb. (kJ/mol),  293 K: -1.839E+02
                                  500 K: -2.447E+02
                                 1000 K: -4.295E+02
                                 1500 K: -6.584E+02
                                 2000 K: -9.217E+02

   PRODUCTS
   Molecular Weight (g/mol)            28.00618
   Ambient Density (kg/m^3)            1.164
   Initial Mass Fraction               0.000
   Enthalpy of Formation (J/kg)     -2.996E+06

   Sub Species                    Mass Fraction     Mole Fraction
   NITROGEN                       7.151289E-01      7.149445E-01
   CARBON DIOXIDE                 1.741074E-01      1.107961E-01
   WATER VAPOR                    1.070384E-01      1.663997E-01
   CARBON MONOXIDE                6.208910E-04      6.208040E-04
   SOOT                           3.104455E-03      7.238872E-03
   HYDROGEN CYANIDE               0.000000E+00      0.000000E+00
 
     Viscosity (kg/m/s) Ambient,  293 K:  1.609E-05
                                  500 K:  2.385E-05
                                 1000 K:  3.888E-05
                                 1500 K:  5.138E-05
                                 2000 K:  6.239E-05
   Therm. Cond. (W/m/K) Ambient,  293 K:  2.338E-02
                                  500 K:  3.616E-02
                                 1000 K:  6.717E-02
                                 1500 K:  9.644E-02
                                 2000 K:  1.227E-01
        Enthalpy (J/kg) Ambient,  293 K: -3.002E+06
                                  500 K: -2.770E+06
                                 1000 K: -2.158E+06
                                 1500 K: -1.478E+06
                                 2000 K: -7.568E+05
    Spec. Heat (J/kg/K) Ambient,  293 K:  1.092E+03
                                  500 K:  1.145E+03
                                 1000 K:  1.301E+03
                                 1500 K:  1.408E+03
                                 2000 K:  1.472E+03
   Diff. Coeff. (m^2/s) Ambient,  293 K:  1.957E-05
                                  500 K:  4.968E-05
                                 1000 K:  1.605E-04
                                 1500 K:  3.156E-04
                                 2000 K:  5.091E-04
     Gibbs Energy Amb. (kJ/mol),  293 K: -1.515E+02
                                  500 K: -1.935E+02
                                 1000 K: -3.057E+02
                                 1500 K: -4.274E+02
                                 2000 K: -5.560E+02


 Gas Phase Reaction Information

   Solver Details:  

      ODE Solver:  EXPLICIT EULER

      Fuel                                           Heat of Combustion (kJ/kg)
      PROPANE                                                        44595.4343
      EPUMO2:                                                        12780.1829

      Primitive Species Stoich. Coeff.
      Species ID                                                          Molar
      NITROGEN                                                         0.000000
      OXYGEN                                                          -4.808561
      CARBON DIOXIDE                                                   2.800689
      WATER VAPOR                                                      4.000000
      CARBON MONOXIDE                                                  0.015743
      SOOT                                                             0.183568
      PROPANE                                                         -1.000000

      Tracked (Lumped) Species Stoich. Coeff.
      Species ID                                             Molar         Mass
      AIR                                               -23.167218   -15.105888
      PROPANE                                            -1.000000    -1.000000
      PRODUCTS                                           25.358658    16.105888

      Reaction Kinetics

      Fast chemistry

      Extinction Model:  EXTINCTION 1
      Auto-Ignition Temperature (C):            -273.1
      Critical Flame Temperature (C):           1447.0

      Prescribed Radiative Fraction:             0.290


 Material Information

   1 CONCRETE
     Emissivity:                                  0.900
     Density (kg/m3):                            2200.0
     Specific Heat (kJ/kg/K) Ambient,  293 K:  8.800E-01
                                       350 K:  8.800E-01
                                       500 K:  8.800E-01
                                       800 K:  8.800E-01
     Therm. Cond. (W/m/K) Ambient,     293 K:  1.000E+00
                                       350 K:  1.000E+00
                                       500 K:  1.000E+00
                                       800 K:  1.000E+00
     Enthalpy (kJ/kg) Ambient,         293 K:  2.578E+02
                                       350 K:  3.080E+02
                                       500 K:  4.400E+02
                                       800 K:  7.040E+02


 Surface Conditions

   0 INERT (DEFAULT)

   1 INERT01
     Material List
          1  CONCRETE
     Layer  1
        Thickness   (m):  0.15000
        Density (kg/m3):  2200.00
        CONCRETE, Mass fraction:    1.00
     Reaction products considered from the first -1.00 layers.
     Total surface density   330.000 kg/m2
     Solid Phase Node, Layer, Coordinates(m):
                    0      1       0.0000000
                    1      1       0.0005906
                    2      1       0.0017717
                    3      1       0.0041339
                    4      1       0.0088583
                    5      1       0.0183071
                    6      1       0.0372047
                    7      1       0.0750000
                    8      1       0.1127953
                    9      1       0.1316929
                   10      1       0.1411417
                   11      1       0.1458661
                   12      1       0.1482283
                   13      1       0.1494094
                   14      1       0.1500000
     Exposed Backing

   2 FLOOR

   3 Kitchen_Fire
     HRR Per Unit Area (kW/m2)        800.0
     PROPANE Mass Flux (kg/s/m2)   1.794E-02

   4 Living_Fire
     HRR Per Unit Area (kW/m2)        400.0
     PROPANE Mass Flux (kg/s/m2)   8.970E-03

   5 OPEN
     Passive Vent to Atmosphere

   6 MIRROR
     Symmetry Plane

   7 INTERPOLATED

   8 PERIODIC

   9 HVAC

  10 MASSLESS TRACER

  11 DROPLET

  12 MASSLESS TARGET

  13 PERIODIC FLOW ONLY


 Lagrangian Particle Classes


 Cut-off Density and Temperature

    Minimum Temperature:  -259.1 C
    Maximum Temperature:  2726.8 C
    Minimum Density:  1.195E-01 kg/m3
    Maximum Density:  7.677E+01 kg/m3


 Device Information

   1 ID: TEMP_0
     QUANTITY: TEMPERATURE
     Coordinates (X,Y,Z):    2.500000E+01    2.500000E+01    1.200000E+00
     TEMPORAL STATISTIC: TIME AVERAGE
   2 ID: TEMP_1
     QUANTITY: TEMPERATURE
     Coordinates (X,Y,Z):    1.000000E+01    4.250000E+01    1.200000E+00
     TEMPORAL STATISTIC: TIME AVERAGE
   3 ID: TEMP_2
     QUANTITY: TEMPERATURE
     Coordinates (X,Y,Z):    1.000000E+01    2.250000E+01    1.200000E+00
     TEMPORAL STATISTIC: TIME AVERAGE
   4 ID: TEMP_3
     QUANTITY: TEMPERATURE
     Coordinates (X,Y,Z):    4.000000E+01    4.250000E+01    1.200000E+00
     TEMPORAL STATISTIC: TIME AVERAGE
   5 ID: TEMP_4
     QUANTITY: TEMPERATURE
     Coordinates (X,Y,Z):    3.750000E+01    2.000000E+01    1.200000E+00
     TEMPORAL STATISTIC: TIME AVERAGE
   6 ID: TEMP_5
     QUANTITY: TEMPERATURE
     Coordinates (X,Y,Z):    2.500000E+01   -5.000000E+00    1.200000E+00
     TEMPORAL STATISTIC: TIME AVERAGE


 Isosurface File Information

   1 Quantity: TEMPERATURE, VALUE(s): 100.000  50.000


 Slice File Information, Mesh     1

   1 Nodes:   0  52   0  62   2   2, Quantity: SOOT MASS FRACTION
   2 Nodes:   0  52   0  62   2   2, Quantity: TEMPERATURE


 Radiation Model Information

   Number of control angles  104
   Time step increment         3
   Angle increment             5
   Theta band N_phi   Solid angle
     1:        4     0.120
     2:       12     0.114
     3:       16     0.127
     4:       20     0.120
     5:       20     0.120
     6:       16     0.127
     7:       12     0.114
     8:        4     0.120
   Using gray gas absorption.
   Mean beam length  1.000E-01 m


 Pressure Zone Information

   1 Volume: 3.0000E+02 m3, Cells: 300, Mesh: 1, Indices: (31,11,3)
   2 Volume: 4.2000E+03 m3, Cells: 4200, Mesh: 1, Indices: (51,61,3)
   3 Volume: 4.5000E+02 m3, Cells: 450, Mesh: 1, Indices: (46,36,3)
 
 

 Run Time Diagnostics

       Time Step        1   November 17, 2025  00:16:27
       Step Size:  0.922E+00 s, Total Time:    0.92183 s
       Pressure Iterations: 1
       Maximum Velocity Error:  0.34E-02 on Mesh 1 at (41,26,3)
       Maximum Pressure Error:  0.19E-04 on Mesh 1 at (42,54,1)
       ---------------------------------------------------------------
       Max CFL number:  0.22E-01 at (49,36,2)
       Max divergence:  0.18E-05 at (33,18,2)
       Min divergence: -0.14E-03 at (41,54,1)
       Max VN number :  0.28E-01 at (39,46,2)
 
       Time Step        2   November 17, 2025  00:16:27
       Step Size:  0.922E+00 s, Total Time:    1.84365 s
       Pressure Iterations: 1
       Maximum Velocity Error:  0.44E-02 on Mesh 1 at (21,46,3)
       Maximum Pressure Error:  0.37E-01 on Mesh 1 at (42,54,1)
       ---------------------------------------------------------------
       Max CFL number:  0.22E-01 at (23,8,2)
       Max divergence:  0.10E+00 at (42,54,1)
       Min divergence: -0.56E-04 at (2,47,3)
       Max VN number :  0.27E-01 at (11,12,3)
 
       Time Step        3   November 17, 2025  00:16:27
       Step Size:  0.922E+00 s, Total Time:    2.76548 s
       Pressure Iterations: 1
       Maximum Velocity Error:  0.75E-02 on Mesh 1 at (21,46,1)
       Maximum Pressure Error:  0.65E-01 on Mesh 1 at (41,54,1)
       ---------------------------------------------------------------
       Max CFL number:  0.13E+00 at (42,54,1)
       Max divergence:  0.16E+00 at (41,54,1)
       Min divergence: -0.15E-03 at (21,47,3)
       Max VN number :  0.27E-01 at (11,12,3)
 
       Time Step        4   November 17, 2025  00:16:27
       Step Size:  0.922E+00 s, Total Time:    3.68730 s
       Pressure Iterations: 1
       Maximum Velocity Error:  0.20E-01 on Mesh 1 at (21,46,2)
       Maximum Pressure Error:  0.21E+00 on Mesh 1 at (41,54,1)
       ---------------------------------------------------------------
       Max CFL number:  0.54E+00 at (42,54,1)
       Max divergence:  0.17E+00 at (41,54,1)
       Min divergence: -0.26E-03 at (21,46,1)
       Max VN number :  0.62E-01 at (42,54,2)
 
       Time Step        5   November 17, 2025  00:16:28
       Step Size:  0.560E+00 s, Total Time:    4.24749 s
       Pressure Iterations: 1
       Maximum Velocity Error:  0.16E-01 on Mesh 1 at (51,46,1)
       Maximum Pressure Error:  0.17E+00 on Mesh 1 at (42,54,1)
       ---------------------------------------------------------------
       Max CFL number:  0.73E+00 at (42,54,1)
       Max divergence:  0.19E+00 at (41,54,1)
       Min divergence: -0.69E-03 at (21,47,2)
       Max VN number :  0.17E+00 at (42,54,2)
 
       Time Step        6   November 17, 2025  00:16:28
       Step Size:  0.435E+00 s, Total Time:    4.68250 s
       Pressure Iterations: 1
       Maximum Velocity Error:  0.12E-01 on Mesh 1 at (21,46,1)
       Maximum Pressure Error:  0.14E+00 on Mesh 1 at (42,54,1)
       ---------------------------------------------------------------
       Max CFL number:  0.81E+00 at (42,54,1)
       Max divergence:  0.16E+00 at (42,54,1)
       Min divergence: -0.76E-03 at (21,47,2)
       Max VN number :  0.26E+00 at (42,54,2)
 
       Time Step        7   November 17, 2025  00:16:28
       Step Size:  0.435E+00 s, Total Time:    5.11751 s
       Pressure Iterations: 1
       Maximum Velocity Error:  0.12E-01 on Mesh 1 at (21,46,2)
       Maximum Pressure Error:  0.27E+00 on Mesh 1 at (41,54,1)
       ---------------------------------------------------------------
       Max CFL number:  0.96E+00 at (42,54,1)
       Max divergence:  0.15E+00 at (42,54,1)
       Min divergence: -0.62E-03 at (21,47,2)
       Max VN number :  0.37E+00 at (42,54,2)
 
       Time Step        8   November 17, 2025  00:16:28
       Step Size:  0.344E+00 s, Total Time:    5.46188 s
       Pressure Iterations: 1
       Maximum Velocity Error:  0.63E-02 on Mesh 1 at (31,61,1)
       Maximum Pressure Error:  0.41E+00 on Mesh 1 at (42,54,3)
       ---------------------------------------------------------------
       Max CFL number:  0.84E+00 at (42,54,3)
       Max divergence:  0.17E+00 at (42,54,1)
       Min divergence: -0.54E-03 at (21,47,2)
       Max VN number :  0.38E+00 at (42,54,2)
 
       Time Step        9   November 17, 2025  00:16:28
       Step Size:  0.344E+00 s, Total Time:    5.80624 s
       Pressure Iterations: 1
       Maximum Velocity Error:  0.77E-02 on Mesh 1 at (31,61,1)
       Maximum Pressure Error:  0.32E+00 on Mesh 1 at (41,54,3)
       ---------------------------------------------------------------
       Max CFL number:  0.99E+00 at (42,54,3)
       Max divergence:  0.19E+00 at (42,54,1)
       Min divergence: -0.12E-01 at (42,54,3)
       Max VN number :  0.41E+00 at (42,54,2)
 
       Time Step       10   November 17, 2025  00:16:28
       Step Size:  0.293E+00 s, Total Time:    6.09939 s
       Pressure Iterations: 1
       Maximum Velocity Error:  0.65E-02 on Mesh 1 at (31,61,1)
       Maximum Pressure Error:  0.13E+00 on Mesh 1 at (41,54,3)
       ---------------------------------------------------------------
       Max CFL number:  0.89E+00 at (42,54,3)
       Max divergence:  0.22E+00 at (42,54,1)
       Min divergence: -0.18E-01 at (43,54,3)
       Max VN number :  0.36E+00 at (42,53,3)
 
       Time Step       20   November 17, 2025  00:16:28
       Step Size:  0.293E+00 s, Total Time:    9.03089 s
       Pressure Iterations: 1
       Maximum Velocity Error:  0.56E-02 on Mesh 1 at (32,46,1)
       Maximum Pressure Error:  0.26E+00 on Mesh 1 at (41,54,1)
       ---------------------------------------------------------------
       Max CFL number:  0.90E+00 at (41,54,3)
       Max divergence:  0.26E+00 at (42,54,1)
       Min divergence: -0.20E-01 at (42,54,3)
       Max VN number :  0.34E+00 at (40,53,3)
 
       Time Step       30   November 17, 2025  00:16:29
       Step Size:  0.262E+00 s, Total Time:   11.93127 s
       Pressure Iterations: 1
       Maximum Velocity Error:  0.19E-02 on Mesh 1 at (32,46,2)
       Maximum Pressure Error:  0.45E+00 on Mesh 1 at (41,54,1)
       ---------------------------------------------------------------
       Max CFL number:  0.90E+00 at (41,54,3)
       Max divergence:  0.34E+00 at (42,54,1)
       Min divergence: -0.62E-02 at (41,54,3)
       Max VN number :  0.26E+00 at (41,54,3)
 
       Time Step       40   November 17, 2025  00:16:29
       Step Size:  0.262E+00 s, Total Time:   14.55164 s
       Pressure Iterations: 1
       Maximum Velocity Error:  0.49E-02 on Mesh 1 at (41,46,1)
       Maximum Pressure Error:  0.89E-01 on Mesh 1 at (41,54,1)
       ---------------------------------------------------------------
       Max CFL number:  0.97E+00 at (41,54,3)
       Max divergence:  0.34E+00 at (42,54,1)
       Min divergence: -0.14E-01 at (42,54,3)
       Max VN number :  0.29E+00 at (42,54,2)
 
       Time Step       50   November 17, 2025  00:16:30
       Step Size:  0.236E+00 s, Total Time:   16.98673 s
       Pressure Iterations: 1
       Maximum Velocity Error:  0.41E-02 on Mesh 1 at (41,61,3)
       Maximum Pressure Error:  0.39E-01 on Mesh 1 at (42,54,2)
       ---------------------------------------------------------------
       Max CFL number:  0.93E+00 at (42,54,3)
       Max divergence:  0.40E+00 at (41,54,1)
       Min divergence: -0.20E-01 at (42,54,3)
       Max VN number :  0.28E+00 at (42,53,3)
 
       Time Step       60   November 17, 2025  00:16:30
       Step Size:  0.236E+00 s, Total Time:   19.34240 s
       Pressure Iterations: 1
       Maximum Velocity Error:  0.59E-02 on Mesh 1 at (36,46,3)
       Maximum Pressure Error:  0.14E+00 on Mesh 1 at (41,54,1)
       ---------------------------------------------------------------
       Max CFL number:  0.91E+00 at (42,54,3)
       Max divergence:  0.51E+00 at (41,54,1)
       Min divergence: -0.31E-01 at (42,54,3)
       Max VN number :  0.28E+00 at (43,53,3)
 
       Time Step       70   November 17, 2025  00:16:31
       Step Size:  0.236E+00 s, Total Time:   21.69808 s
       Pressure Iterations: 1
       Maximum Velocity Error:  0.65E-02 on Mesh 1 at (34,46,3)
       Maximum Pressure Error:  0.84E-01 on Mesh 1 at (42,54,1)
       ---------------------------------------------------------------
       Max CFL number:  0.84E+00 at (41,54,3)
       Max divergence:  0.56E+00 at (42,54,1)
       Min divergence: -0.26E-01 at (43,54,3)
       Max VN number :  0.31E+00 at (40,53,3)
 
       Time Step       80   November 17, 2025  00:16:32
       Step Size:  0.236E+00 s, Total Time:   24.05375 s
       Pressure Iterations: 1
       Maximum Velocity Error:  0.97E-02 on Mesh 1 at (31,61,1)
       Maximum Pressure Error:  0.14E+00 on Mesh 1 at (41,54,1)
       ---------------------------------------------------------------
       Max CFL number:  0.87E+00 at (42,54,2)
       Max divergence:  0.59E+00 at (42,54,1)
       Min divergence: -0.39E-01 at (44,54,1)
       Max VN number :  0.33E+00 at (43,53,3)
 
       Time Step       90   November 17, 2025  00:16:32
       Step Size:  0.236E+00 s, Total Time:   26.40943 s
       Pressure Iterations: 1
       Maximum Velocity Error:  0.73E-02 on Mesh 1 at (35,61,3)
       Maximum Pressure Error:  0.48E+00 on Mesh 1 at (41,54,1)
       ---------------------------------------------------------------
       Max CFL number:  0.10E+01 at (41,54,2)
       Max divergence:  0.52E+00 at (42,54,1)
       Min divergence: -0.35E-01 at (40,53,3)
       Max VN number :  0.35E+00 at (32,45,2)
 
       Time Step      100   November 17, 2025  00:16:33
       Step Size:  0.210E+00 s, Total Time:   28.51044 s
       Pressure Iterations: 1
       Maximum Velocity Error:  0.65E-02 on Mesh 1 at (49,46,3)
       Maximum Pressure Error:  0.48E+00 on Mesh 1 at (42,54,1)
       ---------------------------------------------------------------
       Max CFL number:  0.95E+00 at (42,54,2)
       Max divergence:  0.47E+00 at (42,54,1)
       Min divergence: -0.35E-01 at (43,53,3)
       Max VN number :  0.33E+00 at (40,53,3)
 
       Time Step      200   November 17, 2025  00:16:39
       Step Size:  0.226E+00 s, Total Time:   49.34673 s
       Pressure Iterations: 1
       Maximum Velocity Error:  0.77E-02 on Mesh 1 at (31,47,3)
       Maximum Pressure Error:  0.50E+00 on Mesh 1 at (42,55,3)
       ---------------------------------------------------------------
       Max CFL number:  0.85E+00 at (41,54,2)
       Max divergence:  0.74E+00 at (41,54,1)
       Min divergence: -0.41E-01 at (41,53,3)
       Max VN number :  0.74E+00 at (41,57,1)
 
       Time Step      300   November 17, 2025  00:16:45
       Step Size:  0.207E+00 s, Total Time:   69.95795 s
       Pressure Iterations: 1
       Maximum Velocity Error:  0.12E-01 on Mesh 1 at (50,46,1)
       Maximum Pressure Error:  0.74E+00 on Mesh 1 at (41,54,3)
       ---------------------------------------------------------------
       Max CFL number:  0.84E+00 at (41,54,2)
       Max divergence:  0.69E+00 at (42,54,1)
       Min divergence: -0.71E-01 at (40,54,3)
       Max VN number :  0.63E+00 at (40,54,3)
 
       Time Step      400   November 17, 2025  00:16:52
       Step Size:  0.203E+00 s, Total Time:   91.73148 s
       Pressure Iterations: 1
       Maximum Velocity Error:  0.88E-02 on Mesh 1 at (36,46,3)
       Maximum Pressure Error:  0.92E+00 on Mesh 1 at (41,55,3)
       ---------------------------------------------------------------
       Max CFL number:  0.84E+00 at (41,54,2)
       Max divergence:  0.71E+00 at (42,54,1)
       Min divergence: -0.80E-01 at (40,53,1)
       Max VN number :  0.88E+00 at (40,53,1)
 
       Time Step      500   November 17, 2025  00:16:58
       Step Size:  0.242E+00 s, Total Time:  112.83169 s
       Pressure Iterations: 1
       Maximum Velocity Error:  0.14E-01 on Mesh 1 at (31,53,3)
       Maximum Pressure Error:  0.75E+00 on Mesh 1 at (42,54,3)
       ---------------------------------------------------------------
       Max CFL number:  0.91E+00 at (42,54,2)
       Max divergence:  0.75E+00 at (42,54,1)
       Min divergence: -0.11E+00 at (41,52,1)
       Max VN number :  0.92E+00 at (42,52,1)
 
       Time Step      600   November 17, 2025  00:17:06
       Step Size:  0.204E+00 s, Total Time:  134.31120 s
       Pressure Iterations: 1
       Maximum Velocity Error:  0.14E-01 on Mesh 1 at (48,46,1)
       Maximum Pressure Error:  0.76E+00 on Mesh 1 at (41,51,3)
       ---------------------------------------------------------------
       Max CFL number:  0.83E+00 at (41,53,2)
       Max divergence:  0.71E+00 at (41,54,1)
       Min divergence: -0.86E-01 at (41,51,1)
       Max VN number :  0.58E+00 at (42,51,1)
 
       Time Step      700   November 17, 2025  00:17:12
       Step Size:  0.211E+00 s, Total Time:  156.47224 s
       Pressure Iterations: 1
       Maximum Velocity Error:  0.15E-01 on Mesh 1 at (31,48,1)
       Maximum Pressure Error:  0.60E+00 on Mesh 1 at (42,54,1)
       ---------------------------------------------------------------
       Max CFL number:  0.90E+00 at (42,54,2)
       Max divergence:  0.62E+00 at (41,54,1)
       Min divergence: -0.60E-01 at (31,54,2)
       Max VN number :  0.64E+00 at (39,52,1)
 
       Time Step      800   November 17, 2025  00:17:18
       Step Size:  0.215E+00 s, Total Time:  177.96566 s
       Pressure Iterations: 1
       Maximum Velocity Error:  0.99E-02 on Mesh 1 at (32,46,1)
       Maximum Pressure Error:  0.64E+00 on Mesh 1 at (42,54,3)
       ---------------------------------------------------------------
       Max CFL number:  0.89E+00 at (42,54,2)
       Max divergence:  0.77E+00 at (41,54,1)
       Min divergence: -0.75E-01 at (43,52,2)
       Max VN number :  0.61E+00 at (45,52,1)
 
       Time Step      900   November 17, 2025  00:17:26
       Step Size:  0.286E+00 s, Total Time:  200.46242 s
       Pressure Iterations: 1
       Maximum Velocity Error:  0.18E-01 on Mesh 1 at (34,61,1)
       Maximum Pressure Error:  0.92E+00 on Mesh 1 at (41,54,1)
       ---------------------------------------------------------------
       Max CFL number:  0.96E+00 at (42,52,1)
       Max divergence:  0.71E+00 at (42,54,1)
       Min divergence: -0.78E-01 at (42,51,1)
       Max VN number :  0.97E+00 at (40,52,1)
 
       Time Step     1000   November 17, 2025  00:17:33
       Step Size:  0.198E+00 s, Total Time:  221.70543 s
       Pressure Iterations: 1
       Maximum Velocity Error:  0.92E-02 on Mesh 1 at (31,58,3)
       Maximum Pressure Error:  0.13E+01 on Mesh 1 at (42,54,3)
       ---------------------------------------------------------------
       Max CFL number:  0.97E+00 at (42,54,2)
       Max divergence:  0.73E+00 at (41,54,1)
       Min divergence: -0.88E-01 at (42,54,3)
       Max VN number :  0.37E+00 at (41,54,3)
 
       Time Step     1100   November 17, 2025  00:17:40
       Step Size:  0.203E+00 s, Total Time:  243.57247 s
       Pressure Iterations: 1
       Maximum Velocity Error:  0.86E-02 on Mesh 1 at (44,46,3)
       Maximum Pressure Error:  0.42E+00 on Mesh 1 at (42,54,3)
       ---------------------------------------------------------------
       Max CFL number:  0.83E+00 at (42,54,2)
       Max divergence:  0.72E+00 at (41,54,1)
       Min divergence: -0.43E-01 at (43,51,3)
       Max VN number :  0.81E+00 at (45,52,1)
 
       Time Step     1200   November 17, 2025  00:17:46
       Step Size:  0.235E+00 s, Total Time:  264.98900 s
       Pressure Iterations: 1
       Maximum Velocity Error:  0.20E-01 on Mesh 1 at (43,61,3)
       Maximum Pressure Error:  0.94E+00 on Mesh 1 at (42,54,1)
       ---------------------------------------------------------------
       Max CFL number:  0.89E+00 at (43,54,1)
       Max divergence:  0.69E+00 at (41,54,1)
       Min divergence: -0.75E-01 at (43,55,3)
       Max VN number :  0.71E+00 at (41,51,1)
 
       Time Step     1300   November 17, 2025  00:17:52
       Step Size:  0.222E+00 s, Total Time:  285.63308 s
       Pressure Iterations: 1
       Maximum Velocity Error:  0.10E-01 on Mesh 1 at (47,61,3)
       Maximum Pressure Error:  0.17E+02 on Mesh 1 at (42,54,1)
       ---------------------------------------------------------------
       Max CFL number:  0.96E+00 at (40,54,3)
       Max divergence:  0.57E+00 at (41,54,1)
       Min divergence: -0.74E-01 at (40,53,3)
       Max VN number :  0.62E+00 at (11,50,1)
 
       Time Step     1400   November 17, 2025  00:17:58
       Step Size:  0.215E+00 s, Total Time:  308.53422 s
       Pressure Iterations: 1
       Maximum Velocity Error:  0.15E-01 on Mesh 1 at (41,46,3)
       Maximum Pressure Error:  0.74E+00 on Mesh 1 at (41,54,3)
       ---------------------------------------------------------------
       Max CFL number:  0.97E+00 at (42,54,3)
       Max divergence:  0.62E+00 at (41,54,1)
       Min divergence: -0.64E-01 at (43,54,3)
       Max VN number :  0.64E+00 at (42,53,3)
 
       Time Step     1500   November 17, 2025  00:18:04
       Step Size:  0.232E+00 s, Total Time:  331.22627 s
       Pressure Iterations: 1
       Maximum Velocity Error:  0.17E-01 on Mesh 1 at (51,48,1)
       Maximum Pressure Error:  0.97E+00 on Mesh 1 at (40,54,3)
       ---------------------------------------------------------------
       Max CFL number:  0.83E+00 at (41,54,2)
       Max divergence:  0.64E+00 at (42,54,1)
       Min divergence: -0.50E-01 at (31,54,2)
       Max VN number :  0.68E+00 at (41,51,1)
 
       Time Step     1600   November 17, 2025  00:18:10
       Step Size:  0.214E+00 s, Total Time:  353.79154 s
       Pressure Iterations: 1
       Maximum Velocity Error:  0.82E-02 on Mesh 1 at (35,46,1)
       Maximum Pressure Error:  0.32E+00 on Mesh 1 at (41,54,3)
       ---------------------------------------------------------------
       Max CFL number:  0.90E+00 at (41,54,3)
       Max divergence:  0.72E+00 at (41,54,1)
       Min divergence: -0.51E-01 at (40,54,3)
       Max VN number :  0.59E+00 at (41,58,1)
 
       Time Step     1700   November 17, 2025  00:18:15
       Step Size:  0.251E+00 s, Total Time:  375.59544 s
       Pressure Iterations: 1
       Maximum Velocity Error:  0.16E-01 on Mesh 1 at (46,61,3)
       Maximum Pressure Error:  0.67E+00 on Mesh 1 at (43,53,3)
       ---------------------------------------------------------------
       Max CFL number:  0.94E+00 at (43,54,3)
       Max divergence:  0.65E+00 at (41,54,1)
       Min divergence: -0.75E-01 at (45,54,3)
       Max VN number :  0.88E+00 at (45,52,1)
 
       Time Step     1800   November 17, 2025  00:18:21
       Step Size:  0.206E+00 s, Total Time:  398.81876 s
       Pressure Iterations: 1
       Maximum Velocity Error:  0.82E-02 on Mesh 1 at (45,46,3)
       Maximum Pressure Error:  0.69E+00 on Mesh 1 at (43,54,3)
       ---------------------------------------------------------------
       Max CFL number:  0.91E+00 at (42,54,2)
       Max divergence:  0.74E+00 at (41,54,1)
       Min divergence: -0.87E-01 at (44,54,1)
       Max VN number :  0.55E+00 at (43,56,1)
 
       Time Step     1900   November 17, 2025  00:18:27
       Step Size:  0.207E+00 s, Total Time:  419.64823 s
       Pressure Iterations: 1
       Maximum Velocity Error:  0.81E-02 on Mesh 1 at (51,49,3)
       Maximum Pressure Error:  0.53E+00 on Mesh 1 at (42,54,3)
       ---------------------------------------------------------------
       Max CFL number:  0.95E+00 at (42,54,2)
       Max divergence:  0.68E+00 at (41,54,1)
       Min divergence: -0.64E-01 at (44,55,1)
       Max VN number :  0.81E+00 at (44,57,1)
 
       Time Step     2000   November 17, 2025  00:18:33
       Step Size:  0.212E+00 s, Total Time:  440.51777 s
       Pressure Iterations: 1
       Maximum Velocity Error:  0.12E-01 on Mesh 1 at (49,61,1)
       Maximum Pressure Error:  0.80E+00 on Mesh 1 at (42,54,3)
       ---------------------------------------------------------------
       Max CFL number:  0.82E+00 at (42,54,2)
       Max divergence:  0.65E+00 at (42,54,1)
       Min divergence: -0.46E-01 at (43,55,3)
       Max VN number :  0.83E+00 at (45,52,1)
 
       Time Step     2100   November 17, 2025  00:18:39
       Step Size:  0.238E+00 s, Total Time:  461.73077 s
       Pressure Iterations: 1
       Maximum Velocity Error:  0.21E-01 on Mesh 1 at (41,46,1)
       Maximum Pressure Error:  0.76E+00 on Mesh 1 at (41,53,1)
       ---------------------------------------------------------------
       Max CFL number:  0.80E+00 at (41,52,3)
       Max divergence:  0.68E+00 at (41,54,1)
       Min divergence: -0.56E-01 at (31,54,2)
       Max VN number :  0.58E+00 at (45,52,1)
 
       Time Step     2200   November 17, 2025  00:18:44
       Step Size:  0.251E+00 s, Total Time:  484.48298 s
       Pressure Iterations: 1
       Maximum Velocity Error:  0.15E-01 on Mesh 1 at (48,46,1)
       Maximum Pressure Error:  0.11E+01 on Mesh 1 at (43,54,3)
       ---------------------------------------------------------------
       Max CFL number:  0.94E+00 at (43,54,1)
       Max divergence:  0.62E+00 at (41,54,1)
       Min divergence: -0.56E-01 at (44,52,3)
       Max VN number :  0.75E+00 at (42,53,1)
 
       Time Step     2300   November 17, 2025  00:18:50
       Step Size:  0.178E+00 s, Total Time:  505.62721 s
       Pressure Iterations: 1
       Maximum Velocity Error:  0.15E-01 on Mesh 1 at (41,46,3)
       Maximum Pressure Error:  0.11E+01 on Mesh 1 at (42,54,3)
       ---------------------------------------------------------------
       Max CFL number:  0.86E+00 at (42,54,2)
       Max divergence:  0.69E+00 at (41,54,1)
       Min divergence: -0.64E-01 at (42,55,3)
       Max VN number :  0.55E+00 at (39,49,1)
 
       Time Step     2400   November 17, 2025  00:18:56
       Step Size:  0.197E+00 s, Total Time:  527.45285 s
       Pressure Iterations: 1
       Maximum Velocity Error:  0.15E-01 on Mesh 1 at (44,46,3)
       Maximum Pressure Error:  0.72E+00 on Mesh 1 at (41,54,1)
       ---------------------------------------------------------------
       Max CFL number:  0.85E+00 at (41,54,2)
       Max divergence:  0.76E+00 at (42,54,1)
       Min divergence: -0.53E-01 at (40,54,3)
       Max VN number :  0.80E+00 at (44,50,1)
 
       Time Step     2500   November 17, 2025  00:19:02
       Step Size:  0.212E+00 s, Total Time:  548.70776 s
       Pressure Iterations: 1
       Maximum Velocity Error:  0.13E-01 on Mesh 1 at (38,46,1)
       Maximum Pressure Error:  0.99E+00 on Mesh 1 at (42,54,3)
       ---------------------------------------------------------------
       Max CFL number:  0.89E+00 at (42,54,2)
       Max divergence:  0.73E+00 at (41,54,1)
       Min divergence: -0.83E-01 at (42,55,3)
       Max VN number :  0.66E+00 at (45,50,1)
 
       Time Step     2600   November 17, 2025  00:19:08
       Step Size:  0.210E+00 s, Total Time:  569.42302 s
       Pressure Iterations: 1
       Maximum Velocity Error:  0.14E-01 on Mesh 1 at (40,46,3)
       Maximum Pressure Error:  0.42E+00 on Mesh 1 at (12,54,1)
       ---------------------------------------------------------------
       Max CFL number:  0.75E+00 at (43,54,2)
       Max divergence:  0.73E+00 at (41,54,1)
       Min divergence: -0.46E-01 at (44,53,1)
       Max VN number :  0.81E+00 at (44,51,1)
 
       Time Step     2700   November 17, 2025  00:19:14
       Step Size:  0.215E+00 s, Total Time:  590.94740 s
       Pressure Iterations: 1
       Maximum Velocity Error:  0.14E-01 on Mesh 1 at (51,46,1)
       Maximum Pressure Error:  0.93E+00 on Mesh 1 at (41,53,1)
       ---------------------------------------------------------------
       Max CFL number:  0.91E+00 at (41,54,2)
       Max divergence:  0.65E+00 at (41,54,1)
       Min divergence: -0.64E-01 at (44,53,3)
       Max VN number :  0.94E+00 at (42,50,1)
 
       Time Step     2742   November 17, 2025  00:19:16
       Step Size:  0.122E+00 s, Total Time:  600.00000 s
       Pressure Iterations: 1
       Maximum Velocity Error:  0.64E-02 on Mesh 1 at (44,46,3)
       Maximum Pressure Error:  0.34E+01 on Mesh 1 at (42,54,1)
       ---------------------------------------------------------------
       Max CFL number:  0.50E+00 at (43,54,3)
       Max divergence:  0.86E+00 at (42,54,1)
       Min divergence: -0.65E-01 at (43,54,3)
       Max VN number :  0.49E+00 at (44,55,3)
 


 Time Stepping Wall Clock Time (s):      169.033
 Total Elapsed Wall Clock Time (s):      171.384

STOP: FDS completed successfully (CHID: V3)
